#Generated with FemMesher,Department of Engineering Mechanics,Hohai University
#Caution:IDs of Element,node,material and load step,all start at 0
#���� 1�� 14 2022,16:44:21
*Node2d,48
#nodeId,coor_x,coor_y
      0     -132.0675105      55.69620253
      1     -132.0675105 46.41350210999985
      2 -117.9465541040232 46.41350211114626
      3 -117.9465541040005      55.69620253
      4     -132.0675105      37.13080169
      5 -117.9465541039997      37.13080169
      6 -103.8255977079995      37.13080169
      7 -103.8255977078877 46.41350209438969
      8 -89.70464131199913      37.13080169
      9 -89.70464131212357 46.41350211410131
     10 -75.58368491599872      37.13080169
     11 -75.58368491607359 46.41350204015009
     12 -61.46272851999831      37.13080169
     13 -61.46272851999029 46.41350211521414
     14 -47.3417721239979      37.13080169
     15 -47.34177212390711 46.41350210514975
     16 -33.22081572799749      37.13080169
     17 -33.22081572801608 46.41350206295238
     18 -19.09985933199708      37.13080169
     19 -19.09985933186651 46.41350213119485
     20 -4.978902935997098      37.13080169
     21 -4.978902935607575 46.41350210012603
     22 9.142053460002415      37.13080169
     23 9.142053459963334 46.41350219806023
     24 23.26300985600196      37.13080169
     25 23.26300985600484 46.41350211513629
     26 37.38396625200144      37.13080169
     27 37.38396625193379 46.4135021299665
     28 51.50492264800098      37.13080169
     29 51.50492264891086 46.41350212691548
     30 65.6258790440005      37.13080169
     31 65.62587904386133 46.41350209552728
     32 79.74683544000001      37.13080169
     33      79.74683544 46.41350211000016
     34      79.74683544      55.69620253
     35 65.6258790439997      55.69620253
     36 51.50492264799951      55.69620253
     37 37.38396625199913      55.69620253
     38 23.26300985599872      55.69620253
     39 9.142053459998309      55.69620253
     40 -4.9789029360021      55.69620253
     41 -19.09985933200251      55.69620253
     42 -33.22081572800292      55.69620253
     43 -47.3417721240029      55.69620253
     44 -61.46272852000241      55.69620253
     45 -75.58368491600196      55.69620253
     46 -89.70464131200144      55.69620253
     47 -103.825597708001      55.69620253
*Element2d,30
#EleId,N1,N2,N3,N4,StepId,MatId
      0          0          1          2          3          0          0
      1          1          4          5          2          0          0
      2          5          6          7          2          0          0
      3          6          8          9          7          0          0
      4          8         10         11          9          0          0
      5         10         12         13         11          0          0
      6         12         14         15         13          0          0
      7         14         16         17         15          0          0
      8         16         18         19         17          0          0
      9         18         20         21         19          0          0
     10         20         22         23         21          0          0
     11         22         24         25         23          0          0
     12         24         26         27         25          0          0
     13         26         28         29         27          0          0
     14         28         30         31         29          0          0
     15         30         32         33         31          0          0
     16         33         34         35         31          0          0
     17         36         37         27         29          0          0
     18         37         38         25         27          0          0
     19         38         39         23         25          0          0
     20         40         41         19         21          0          0
     21         41         42         17         19          0          0
     22         43         44         13         15          0          0
     23         45         46          9         11          0          0
     24         45         11         13         44          0          0
     25         17         42         43         15          0          0
     26         40         21         23         39          0          0
     27         36         29         31         35          0          0
     28          9         46         47          7          0          0
     29         47          3          2          7          0          0
*Material,2

*seep
#id,Kx(m/s),Ky(m/s),Kz(m/s),��϶��,��ˮ��
0,1e-05,1e-05,1e-05,0.4,0
1,1e-07,1e-07,1e-07,0.4,0

*Common
#id,������,����(KN/m3),������(KN/m3),����������,���÷�����
0,0,21,12,0,0
1,0,21,12,0,0

*Slope_Dry
#id,
0,12,38,21,32,32,21,45,12,0,0
1,12,38,21,32,32,21,45,12,0,0

*Slope_Wet
#id
0,12,38,21,32,32,21,45,12,0.8,0.8
1,12,38,21,32,32,21,45,12,0.8,0.8

*Deform
#id,��ģ(KPa),���ɱ�
0,100000,0.3
1,100000,0.3
*BoundaryCondition
*NodeConstraint
#nodeId,xfixed,yfixed,step,xdisp,ydisp
        0     1     1     0          0          0
        1     1     1     0          0          0
        4     1     1     0          0          0
       32     1     1     0          0          0
       33     1     1     0          0          0
       34     1     1     0          0          0

*Load
#nodeId,Rx,Ry

       41 0.00000 -10000.00000
