#Generated with FemMesher,Department of Engineering Mechanics,Hohai University
#Caution:IDs of Element,node,material and load step,all start at 0
#周一 1月 10 2022,21:32:09
*Node2d,40
#nodeId,coor_x,coor_y
      0 -168.8366485714286 47.31766124571433
      1 -155.6024378733327 51.00796999999933
      2     -168.7763713 64.55696202999999
      3 -151.8861300966232 32.26863155044701
      4 -142.4285044466661 37.45897796999942
      5 -168.8969258428571 30.07836046142863
      6 -168.9572031142857 12.8390596771434
      7 -147.3530262904412 -0.759807539674504
      8 -150.3572969992821 17.60376929465836
      9 -169.0174803857143 -4.400241107141639
     10 -155.9108736606578 -10.99640778523704
     11 -130.2227603200575 11.10295642078234
     12 -116.080637593333 10.36099390999961
     13 -129.2545710199995 23.90998593999951
     14 -169.1380349285714 -38.8788426757136
     15     -169.1983122     -56.11814346
     16 -149.3670885766667 -56.32911392333333
     17 -146.3357541482511 -43.90070484709996
     18 -129.5358649533334 -56.54008438666666
     19 -130.2857945438369 -43.711793742435
     20 -109.7046413300002     -56.75105485
     21 -113.7657670492575 -42.18432250280321
     22 -89.87341770666677 -56.96202531333333
     23 -96.08472751468399 -38.95953664418829
     24 -126.8536103296839 -2.52011481995702
     25 -122.9723426433644 -16.24460494393771
     26 -109.754455213872 -14.94044374112812
     27 -102.9067041666664 -3.187998120000302
     28 -76.5588373133332 -30.28598218000014
     29 -89.73277073999979 -16.73699015000021
     30 -103.2431711267389 -25.32581676138988
     31 -63.3849038866666 -43.83497421000007
     32 -70.0421940833334 -57.17299577666667
     33 -118.0052222267454 -28.92144244710866
     34 -142.6392021183003 -33.39007243574724
     35 -149.9680091671653 -24.80304748511235
     36 -169.0777576571429 -21.63954189142721
     37     -50.21097046     -57.38396624
     38 -137.4047886087123 -18.74097887135856
     39 -131.8610979967079 -31.20570459373734
*Element2d,31
#EleId,N1,N2,N3,N4,StepId,MatId
      0          0          1          2          0          0          0
      1          0          3          4          1          0          0
      2          5          6          7          8          0          0
      3          6          9         10          7          0          0
      4         11         12         13         11          0          0
      5         14         15         16         17          0          0
      6         16         18         19         17          0          0
      7         18         20         21         19          0          0
      8         20         22         23         21          0          0
      9         24         25         26         27          0          0
     10         28         29         30         23          0          0
     11         29         27         26         30          0          0
     12         11         24         27         12          0          0
     13         31         28         32         31          0          0
     14         28         23         22         32          0          0
     15          3          0          5          8          0          0
     16          4          3         13          4          0          0
     17          3          8         11         13          0          0
     18         30         26         25         33          0          0
     19          7         24         11          8          0          0
     20         14         17         34         35          0          0
     21          9         36         10          9          0          0
     22         31         32         37         31          0          0
     23         36         14         35         10          0          0
     24          7         10         35         38          0          0
     25          7         38         25         24          0          0
     26         33         21         23         30          0          0
     27         19         21         33         39          0          0
     28         38         35         34         39          0          0
     29         25         38         39         33          0          0
     30         17         19         39         34          0          0
*Material,2

*seep
#id,Kx(m/s),Ky(m/s),Kz(m/s),孔隙率,给水度
0,1e-05,1e-05,1e-05,0.4,0
1,1e-07,1e-07,1e-07,0.4,0

*Common
#id,材料名,容重(KN/m3),浮容重(KN/m3),是新筑土层,采用非线性
0,0,21,12,0,0
1,0,21,12,0,0

*Slope_Dry
#id,有效应力 c(KPa),有效应力 摩擦角(度),固结不排水 c(KPa),固结不排水 摩擦角(度),总应力 c(KPa),总应力 摩擦角(度),非线性Fi0(度),非线性dFi(度),施工期孔压系数,降落期孔压系数
0,12,38,21,32,32,21,45,12,0,0
1,12,38,21,32,32,21,45,12,0,0

*Slope_Wet
#id,_有效应力 c(KPa),_有效应力 摩擦角(度),_固结不排水 c(KPa),_固结不排水 摩擦角(度),_总应力 c(KPa),_总应力 摩擦角(度),_非线性Fi0(度),_非线性dFi(度),_施工期孔压系数,_降落期孔压系数
0,12,38,21,32,32,21,45,12,0.8,0.8
1,12,38,21,32,32,21,45,12,0.8,0.8

*Deform
#id,弹模(KPa),泊松比
0,100000,0.3
1,100000,0.3
*BoundaryCondition
*NodeConstraint
#nodeId,xfixed,yfixed,step,xdisp,ydisp
       15     1     1     0          0          0
       16     1     1     0          0          0
       18     1     1     0          0          0
       20     1     1     0          0          0
       22     1     1     0          0          0
       32     1     1     0          0          0
       37     1     1     0          0          0

*Load
#nodeId,Rx,Ry

        2 10000.00000 0.00000
